LAMMPS (15 Jun 2023)
Loaded 0 plugins from C:\Users\olive\LAMMPS 64-bit 28Mar2023\plugins
Loaded 1 plugins from C:\Users\olive\LAMMPS\plugins

#Inicialização

variable T equal 300

units metal
atom_style molecular
boundary p p p
pair_style airebo 2 1 1

#Parâmetros da simulação

read_data cnt_atom.data
Reading data file ...
  orthogonal box = (-40 -40 -14.825508) to (40 40 65.174492)
  reading atoms ...
  840 atoms
Finding 1-2 1-3 1-4 neighbors ...
     0 = max # of 1-2 neighbors
     0 = max # of 1-3 neighbors
     0 = max # of 1-4 neighbors
     1 = max # of special neighbors
pair_coeff * * CHrcc2.airebo C
Reading airebo potential file CHrcc2.airebo with DATE: 2011-10-25

#Recentralizando o CNT e a caixa

change_box all x final -40 40 y final -40 40 z final -60 60
Changing box ...
  orthogonal box = (-40 -40 -14.825508) to (40 40 65.174492)
  orthogonal box = (-40 -40 -14.825508) to (40 40 65.174492)
  orthogonal box = (-40 -40 -60) to (40 40 60)

group carbon_atoms type 1
840 atoms in group carbon_atoms
variable carbon_xcm equal -1*xcm(carbon_atoms,x)
variable carbon_ycm equal -1*xcm(carbon_atoms,y)
variable carbon_zcm equal -1*xcm(carbon_atoms,z)
displace_atoms carbon_atoms move 2.81710211474173e-18 4.77498808448723e-16 -25.1744925714285
Displacing atoms ...

variable zmax equal bound(carbon_atoms,zmax)-10
variable zmin equal bound(carbon_atoms,zmin)+10
region rtop block INF INF INF INF 15.1744914285715 INF
region rbot block INF INF INF INF INF -15.1744925714285
region rmid block INF INF INF INF -15.1744925714285 15.1744914285715

group carbon_top region rtop
180 atoms in group carbon_top
group carbon_bot region rbot
180 atoms in group carbon_bot
group carbon_mid region rmid
480 atoms in group carbon_mid

#Termalização e dinâmica do sistema

velocity carbon_mid create 300 48455 mom yes rot yes
fix mynve all nve
compute Tmid carbon_mid temp
fix myber carbon_mid temp/berendsen 300 300 0.1
fix_modify myber temp Tmid

#Restrigindo o movimento dos átomos da borda

fix mysf1 carbon_bot setforce 0 0 0
fix mysf2 carbon_top setforce 0 0 0
velocity carbon_bot set 0 0 0
velocity carbon_top set 0 0 0

#Salvando os dados

variable pos equal v_zmax-v_zmin
fix at1 all ave/time 10 10 100 v_pos file cnt_deflection.dat
fix at2 all ave/time 10 10 100 f_mysf1[3] f_mysf2[3] file edge_force.dat

#Salvando as coordenadas

dump mydmp all atom 1000 dump.lammpstrj

#Equilibrando

thermo 100
thermo_modify temp Tmid

timestep 0.0005
run 10000
Step          Temp          E_pair         E_mol          TotEng         Press
0   300           -6106.4928      0             -6087.9181     -953.97303
Averages over the last 51 of 101 rows, steps 5000 to 10000:
Temp E_pair E_mol TotEng Press
300.323 -6091.72 0 -6073.13 -634.009
Loop time of 35.2816 on 1 procs for 10000 steps with 840 atoms

#Deformando o CNT

velocity carbon_top set 0 0 0.03
velocity carbon_bot set 0 0 -0.03
run 280000
Step          Temp          E_pair         E_mol          TotEng         Press
10000   285.27464     -6090.7567      0             -6073.0937     -649.80465
Averages over the last 1401 of 2801 rows, steps 150000 to 290000:
Temp E_pair E_mol TotEng Press
308.951 -5856.93 0 -5837.8 -1475.15
Loop time of 989.813 on 1 procs for 280000 steps with 840 atoms
