LAMMPS (7 Feb 2024 - Update 1)
variable T equal 300

units metal
atom_style molecular
boundary p p p
pair_style airebo 2 1 1

read_data cnt_atom.data
Reading data file ...
  orthogonal box = (-40 -40 -14.825508) to (40 40 65.174492)
  reading atoms ...
  840 atoms
Finding 1-2 1-3 1-4 neighbors ...
     0 = max # of 1-2 neighbors
     0 = max # of 1-3 neighbors
     0 = max # of 1-4 neighbors
     1 = max # of special neighbors
pair_coeff * * CHrcc2.airebo C
Reading airebo potential file CHrcc2.airebo with DATE: 2011-10-25

change_box all x final -40 40 y final -40 40 z final -60 60
Changing box ...
  orthogonal box = (-40 -40 -14.825508) to (40 40 65.174492)
  orthogonal box = (-40 -40 -14.825508) to (40 40 65.174492)
  orthogonal box = (-40 -40 -60) to (40 40 60)

group carbon_atoms type 1
840 atoms in group carbon_atoms
variable carbon_xcm equal -1*xcm(carbon_atoms,x)
variable carbon_ycm equal -1*xcm(carbon_atoms,y)
variable carbon_zcm equal -1*xcm(carbon_atoms,z)
displace_atoms carbon_atoms move 3.60589070686942e-16 -3.60589070686942e-16 -25.1744925714285
Displacing atoms ...

variable zmax equal bound(carbon_atoms,zmax)-10
variable zmin equal bound(carbon_atoms,zmin)+10
region rtop block INF INF INF INF 15.1744914285715 INF
region rbot block INF INF INF INF INF -15.1744925714285
region rmid block INF INF INF INF -15.1744925714285 15.1744914285715

group carbon_top region rtop
180 atoms in group carbon_top
group carbon_bot region rbot
180 atoms in group carbon_bot
group carbon_mid region rmid
480 atoms in group carbon_mid

velocity carbon_mid create 300 48455 mom yes rot yes
fix mynve all nve
compute Tmid carbon_mid temp
fix myber carbon_mid temp/berendsen 300 300 0.1
fix_modify myber temp Tmid

fix mysf1 carbon_bot setforce 0 0 0
fix mysf2 carbon_top setforce 0 0 0
velocity carbon_bot set 0 0 0
velocity carbon_top set 0 0 0

variable pos equal v_zmax-v_zmin
fix at1 all ave/time 10 10 100 v_pos file cnt_deflection.dat
fix at2 all ave/time 10 10 100 f_mysf1[3] f_mysf2[3] file edge_force.dat

dump mydmp all atom 5000 dump.lammpstrj

thermo 1000
thermo_modify temp Tmid

timestep 0.0005
run 100000
Step          Temp          E_pair         E_mol          TotEng         Press
0   300           -6106.4928      0             -6087.9181     -953.97303
Averages over the last 51 of 101 rows, steps 50000 to 100000:
Temp E_pair E_mol TotEng Press
301.093 -6091.79 0 -6073.14 -630.441
Loop time of 79.2375 on 64 procs for 100000 steps with 840 atoms

velocity carbon_top set 0 0 0.005
velocity carbon_bot set 0 0 -0.005
run 2800000
Step          Temp          E_pair         E_mol          TotEng         Press
100000   306.9637      -6092.092       0             -6073.0861     -603.17971
Averages over the last 1401 of 2801 rows, steps 1500000 to 2900000:
Temp E_pair E_mol TotEng Press
300.218 -5901.21 0 -5882.62 -539.479
Loop time of 2499.14 on 64 procs for 2800000 steps with 840 atoms
